data_image0
_chemical_formula_structural       Zn4O13C24H4CNH4CNHCNCNCN
_chemical_formula_sum              "Zn4 O13 C29 H9 N5"
_cell_length_a       13.033293
_cell_length_b       14.909383
_cell_length_c       13.032268
_cell_angle_alpha    100.828334
_cell_angle_beta     89.07918200000002
_cell_angle_gamma    94.324214

_space_group_name_H-M_alt    "P 1"
_space_group_IT_number       1

loop_
  _space_group_symop_operation_xyz
  'x, y, z'

loop_
  _atom_site_type_symbol
  _atom_site_label
  _atom_site_symmetry_multiplicity
  _atom_site_fract_x
  _atom_site_fract_y
  _atom_site_fract_z
  _atom_site_occupancy
  Zn  Zn1       1.0  0.5235662385588788  0.7146779267094482  0.1958403660459477  1.0000
  Zn  Zn2       1.0  0.5539445813562658  0.5938838430394864  0.3656057754736329  1.0000
  Zn  Zn3       1.0  0.37448415269435803  0.7279220295394297  0.4026149840576775  1.0000
  Zn  Zn4       1.0  0.34840572617933285  0.5598447196573632  0.21834890983246913  1.0000
  O   O1        1.0  0.4506059132121525  0.6486113131447303  0.2957513099458573  1.0000
  O   O2        1.0  0.6676022253307365  0.6847615733916821  0.17277526819526665  1.0000
  O   O3        1.0  0.546782741232807  0.6238378654592801  0.519032482760214  1.0000
  O   O4        1.0  0.36465402766600574  0.8438180036939004  0.3572718305800464  1.0000
  O   O5        1.0  0.6872116560732534  0.6498573273221651  0.3337592438435831  1.0000
  O   O6        1.0  0.49819865409344566  0.8441069135322855  0.2419323777504021  1.0000
  O   O7        1.0  0.4470783599373059  0.7455736583656501  0.5380864294878146  1.0000
  O   O8        1.0  0.23427773624030446  0.6772432959278822  0.4230755970650316  1.0000
  O   O9        1.0  0.34747315208739765  0.5588226065405795  0.06916547632360574  1.0000
  O   O10       1.0  0.20851062165274842  0.5813757013447759  0.2654570141176754  1.0000
  O   O11       1.0  0.4592875258292421  0.681307758369718  0.05635903545992935  1.0000
  O   O12       1.0  0.5449606970837307  0.46069476646884056  0.31741764036558784  1.0000
  O   O13       1.0  0.3881112921970187  0.43896663870043034  0.23588913566286815  1.0000
  C   C1        1.0  0.1776724202092418  0.6292490637557466  0.3506937210347249  1.0000
  C   C2        1.0  0.06580264777843746  0.6323257884196184  0.36558183678681083  1.0000
  C   C3        1.0  0.00022868888842311492  0.618268220605057  0.2837418136835662  1.0000
  C   C4        1.0  0.8924325378548489  0.6308086484009049  0.29766123657488885  1.0000
  C   C5        1.0  0.4676723091075488  0.4131090238542718  0.27251646571450905  1.0000
  C   C6        1.0  0.4701230810843127  0.31150237498131783  0.26181923390958306  1.0000
  C   C7        1.0  0.32977941062058574  0.11823177243779903  0.3649610366078347  1.0000
  C   C8        1.0  0.33729460402927997  0.025788115671526814  0.3604784496424727  1.0000
  C   C9        1.0  0.4793017392211053  0.026319118417622675  0.23712066615917873  1.0000
  C   C10       1.0  0.4747079521059461  0.12130259598461231  0.24144281593566105  1.0000
  C   C11       1.0  0.39912367939416826  0.16789403125400498  0.308081961815234  1.0000
  C   C12       1.0  0.3977394438561353  0.2648085540965881  0.31594639375257755  1.0000
  C   C13       1.0  0.5442797512563244  0.26512736260910263  0.19604985406625675  1.0000
  C   C14       1.0  0.544556441994295  0.17030796818493174  0.18461178358387162  1.0000
  C   C15       1.0  0.72075278544543  0.6600145645436546  0.2433433884464765  1.0000
  C   C16       1.0  0.829264422087217  0.6433157555962847  0.22088653455554635  1.0000
  C   C17       1.0  0.39454539601643596  0.6151243370352077  0.018880820196047542  1.0000
  C   C18       1.0  0.3708987700689491  0.6004337149675227  0.9054018193802406  1.0000
  C   C19       1.0  0.42624659012444127  0.8818330586567484  0.2981187940767682  1.0000
  C   C20       1.0  0.4137043608646897  0.9799155449483095  0.29721068423992386  1.0000
  C   C21       1.0  0.43196570576863347  0.6498616510676969  0.8451718470774271  1.0000
  C   C22       1.0  0.4288557339658409  0.6463339877182105  0.7350284943244846  1.0000
  C   C23       1.0  0.49941214717652427  0.6886758750469547  0.5708405480761523  1.0000
  C   C24       1.0  0.5038273998485095  0.696850065798901  0.6877928512454397  1.0000
  H   H1        1.0  0.030933674002464363  0.6014702038309091  0.20440274949745063  1.0000
  H   H2        1.0  0.8602889056241305  0.6349403228260163  0.37632124995808397  1.0000
  H   H3        1.0  0.8571300163079528  0.644383696230054  0.1419203336674425  1.0000
  H   H4        1.0  0.03817830204906708  0.6534344913703397  0.44520149812190596  1.0000
  C   C25       1.0  0.3249516191898636  0.3150309214478208  0.3824951663043555  1.0000
  N   N1        1.0  0.26830610432971064  0.3585322874708763  0.4378165840035296  1.0000
  H   H5        1.0  0.5362321858676737  0.9891013068721649  0.1876115510532245  1.0000
  H   H6        1.0  0.2718054104402549  0.15462804493402116  0.41396891668940644  1.0000
  H   H7        1.0  0.2857189942601489  0.9874081322565099  0.40577110138091615  1.0000
  H   H8        1.0  0.6000039468928111  0.13370473688535497  0.1320334102687426  1.0000
  C   C26       1.0  0.6161929471077049  0.3143614707696298  0.13907485727476865  1.0000
  N   N2        1.0  0.6767452521441902  0.34936650681024395  0.08915571249095948  1.0000
  H   H9        1.0  0.4919820524957039  0.696703248449236  0.8881126837311646  1.0000
  C   C27       1.0  0.3529929411001991  0.591490183929241  0.6669752345487312  1.0000
  N   N3        1.0  0.29614104588016466  0.5489020961253465  0.6046785208753223  1.0000
  C   C28       1.0  0.5841287795738395  0.7522606200412921  0.7428444619085578  1.0000
  N   N4        1.0  0.6536577487119908  0.7996027395991978  0.7841551472556485  1.0000
  C   C29       1.0  0.28869652828708925  0.5336614806184827  0.8696849552517705  1.0000
  N   N5        1.0  0.22033550448108943  0.47862711168485284  0.8445999299176254  1.0000
