data_image0
_chemical_formula_structural       Cu8H48C36S4N16
_chemical_formula_sum              "Cu8 H48 C36 S4 N16"
_cell_length_a       6.83069026
_cell_length_b       12.46429198
_cell_length_c       13.76
_cell_angle_alpha    90.0
_cell_angle_beta     90.0
_cell_angle_gamma    97.31578497000001

_space_group_name_H-M_alt    "P 1"
_space_group_IT_number       1

loop_
  _space_group_symop_operation_xyz
  'x, y, z'

loop_
  _atom_site_type_symbol
  _atom_site_label
  _atom_site_symmetry_multiplicity
  _atom_site_fract_x
  _atom_site_fract_y
  _atom_site_fract_z
  _atom_site_occupancy
  Cu  Cu1       1.0  0.940074760156296  0.9214053621311502  0.20297183151078338  1.0000
  Cu  Cu2       1.0  0.5598571349596471  0.5785334321133827  0.7029493683286333  1.0000
  Cu  Cu3       1.0  0.05990937409625688  0.07854121229923187  0.7969969407057674  1.0000
  Cu  Cu4       1.0  0.44018433341193836  0.4215130879202072  0.29706908141946853  1.0000
  Cu  Cu5       1.0  0.6304326127145131  0.9056663264555245  0.7698360143403037  1.0000
  Cu  Cu6       1.0  0.8695835457378895  0.5943202424625104  0.2698301327290754  1.0000
  Cu  Cu7       1.0  0.3696183002146672  0.09433046069354685  0.23017639728209424  1.0000
  Cu  Cu8       1.0  0.13046584261956606  0.4056746460921946  0.7300933632169965  1.0000
  H   H1        1.0  0.7699080424377021  0.7693371363844909  0.6608589391613738  1.0000
  H   H2        1.0  0.7301404905693917  0.730712836108459  0.16086974586074076  1.0000
  H   H3        1.0  0.23011216844809074  0.23067334942344458  0.33916441674175735  1.0000
  H   H4        1.0  0.2698934228181504  0.2693160960766949  0.8391121631975527  1.0000
  H   H5        1.0  0.9374822723973043  0.8974349491717194  0.6648823415345949  1.0000
  H   H6        1.0  0.5625904810698461  0.6026101815512132  0.16486785099476858  1.0000
  H   H7        1.0  0.0625256766343845  0.1025780150588426  0.3351161565001844  1.0000
  H   H8        1.0  0.43739824609836025  0.3974330905946527  0.8351047577890668  1.0000
  H   H9        1.0  0.9646295812411504  0.8917719639489674  0.8392079112942319  1.0000
  H   H10       1.0  0.5354389030383083  0.6082485073420193  0.3392119366723882  1.0000
  H   H11       1.0  0.03542242905874815  0.10821769255446634  0.16080760678011286  1.0000
  H   H12       1.0  0.46465316755025127  0.3917618384266087  0.6607858420138009  1.0000
  H   H13       1.0  0.6653050484099781  0.7409989406794474  0.9094389818529269  1.0000
  H   H14       1.0  0.8347080247668197  0.7590237149893813  0.4094477724455494  1.0000
  H   H15       1.0  0.3347298527427908  0.25900474922144373  0.09058394205506314  1.0000
  H   H16       1.0  0.1653704573579574  0.2409909118082217  0.590529994876401  1.0000
  H   H17       1.0  0.7712422944406061  0.6595075878277076  0.8239843109216382  1.0000
  H   H18       1.0  0.7286293186984217  0.840547713994483  0.3240496780121195  1.0000
  H   H19       1.0  0.22869298259697218  0.340505799544399  0.1760078447896695  1.0000
  H   H20       1.0  0.2712906672936705  0.15950711702055648  0.6760085588263411  1.0000
  H   H21       1.0  0.07207689636402288  0.6935192196240971  0.8972559468887732  1.0000
  H   H22       1.0  0.42794796714220446  0.806520535292092  0.39732351209976124  1.0000
  H   H23       1.0  0.9280497592572527  0.30661636366218753  0.10264363864196964  1.0000
  H   H24       1.0  0.5720837047975659  0.1934558263031302  0.6027162244880732  1.0000
  H   H25       1.0  0.20868761751905196  0.8506395852537177  0.10293036203932825  1.0000
  H   H26       1.0  0.2912274901800368  0.6494018677669321  0.602972619224657  1.0000
  H   H27       1.0  0.7912939516478599  0.1493704571757264  0.8970558688985755  1.0000
  H   H28       1.0  0.7086586669416521  0.3505941039288862  0.39703137963404433  1.0000
  H   H29       1.0  0.4811139684176411  0.7875138246900282  0.04167168218254502  1.0000
  H   H30       1.0  0.018839923360387482  0.7125239668343004  0.5416986265122925  1.0000
  H   H31       1.0  0.5188570594254989  0.21246779127781676  0.9583543783186459  1.0000
  H   H32       1.0  0.9811356654655027  0.28751232510450875  0.4582917493562364  1.0000
  H   H33       1.0  0.3633053594085786  0.7752560798614492  0.9278365208181195  1.0000
  H   H34       1.0  0.1365367837462728  0.7247091940603884  0.42784713855683787  1.0000
  H   H35       1.0  0.6366425781748335  0.22472847055553768  0.07218620936416596  1.0000
  H   H36       1.0  0.8633900888955135  0.27528226284326185  0.5721354347891112  1.0000
  H   H37       1.0  0.4332834207051814  0.5922157979286556  0.9670151704637878  1.0000
  H   H38       1.0  0.0666573603250534  0.9077754892469471  0.46700755373430974  1.0000
  H   H39       1.0  0.5666674405442713  0.40774611659981647  0.032965783998285314  1.0000
  H   H40       1.0  0.9333473078014085  0.09223533975453377  0.5329830903855736  1.0000
  H   H41       1.0  0.08369165049345113  0.6066835547328642  0.10524943769765252  1.0000
  H   H42       1.0  0.4161961487096363  0.8932956296116462  0.6052823839400011  1.0000
  H   H43       1.0  0.9162590472356532  0.39329229515465025  0.8947021726029728  1.0000
  H   H44       1.0  0.5837505939215555  0.10666456518684399  0.3947439047556192  1.0000
  H   H45       1.0  0.18591526511050957  0.48187336287086663  0.06694978768348564  1.0000
  H   H46       1.0  0.3140538679971305  0.018109951061699662  0.5669635027268515  1.0000
  H   H47       1.0  0.8139882007899361  0.5180815777775275  0.9329844799424059  1.0000
  H   H48       1.0  0.6859465907787532  0.9818634186483859  0.4330823743186693  1.0000
  C   C1        1.0  0.7078745872074803  0.9896374117656562  0.2076057541881319  1.0000
  C   C2        1.0  0.7921447557918279  0.5104112993806421  0.7075802763433657  1.0000
  C   C3        1.0  0.29220601787787415  0.010402620877348445  0.7923547947190871  1.0000
  C   C4        1.0  0.2078577527511589  0.48965607775176956  0.29236947042543976  1.0000
  C   C5        1.0  0.14883515586989687  0.8562462169556216  0.25585755961466444  1.0000
  C   C6        1.0  0.3508480467136957  0.6435423038194078  0.7557468968062278  1.0000
  C   C7        1.0  0.8510929364168018  0.14364616866416727  0.7441262114219322  1.0000
  C   C8        1.0  0.6490850422594692  0.35639962439703404  0.24426148052107302  1.0000
  C   C9        1.0  0.8413870704861688  0.8360828536098411  0.7047430129011042  1.0000
  C   C10       1.0  0.6586769552043215  0.6639543899007471  0.2047423982982187  1.0000
  C   C11       1.0  0.1586381391110109  0.16393481515377545  0.2952653575832778  1.0000
  C   C12       1.0  0.3413425416749833  0.3360737003473789  0.7952365182441924  1.0000
  C   C13       1.0  0.8624977451360533  0.8293368439920905  0.8035480318102581  1.0000
  C   C14       1.0  0.6375487288559456  0.6706905478332986  0.3035503116845895  1.0000
  C   C15       1.0  0.13751994009770654  0.17067543054615003  0.19645864106158145  1.0000
  C   C16       1.0  0.3625118811806072  0.3293265338678652  0.6964322053670133  1.0000
  C   C17       1.0  0.7985391529093682  0.7339148224583675  0.8671384793159208  1.0000
  C   C18       1.0  0.7014476383318763  0.7661063881746164  0.3671655376074834  1.0000
  C   C19       1.0  0.20146153998503896  0.2660911626701129  0.1328565950021865  1.0000
  C   C20       1.0  0.29858317142021806  0.233905804088463  0.6328465980540313  1.0000
  C   C21       1.0  0.0018262829187044324  0.7916650282759158  0.006276063660525022  1.0000
  C   C22       1.0  0.49813316613557507  0.7083234096759361  0.5063123688894646  1.0000
  C   C23       1.0  0.9981641845926428  0.2083069243470793  0.9937151488764525  1.0000
  C   C24       1.0  0.5018834445201689  0.29168006106658195  0.49373524934600205  1.0000
  C   C25       1.0  0.34524617686908843  0.7508752483046605  0.004551393830011992  1.0000
  C   C26       1.0  0.1546936521711714  0.7491247668545715  0.5045494094868925  1.0000
  C   C27       1.0  0.6547363774744073  0.24909822792784553  0.9954696623239994  1.0000
  C   C28       1.0  0.8452884606588514  0.2508767210788921  0.49542987860899956  1.0000
  C   C29       1.0  0.3276504278698525  0.6308643932096369  0.010256504434488469  1.0000
  C   C30       1.0  0.17228879911441428  0.8691310676346042  0.5102530622615066  1.0000
  C   C31       1.0  0.6723307657669649  0.3691042085937347  0.9897371360431018  1.0000
  C   C32       1.0  0.8276815869788371  0.1308668387451924  0.4897515130142735  1.0000
  C   C33       1.0  0.19350354792538108  0.5695431577849397  0.06451123023446644  1.0000
  C   C34       1.0  0.30644445418669924  0.9304433318308512  0.5645108344442503  1.0000
  C   C35       1.0  0.8064439575919116  0.43041594537435507  0.9354548405616201  1.0000
  C   C36       1.0  0.6935491378721786  0.06953338856272384  0.43549760654010455  1.0000
  S   S1        1.0  0.8322965348357029  0.8729798685937591  0.046795853784956876  1.0000
  S   S2        1.0  0.6677242993178709  0.6270623325564949  0.5468602389848943  1.0000
  S   S3        1.0  0.16765541987355945  0.12697440643489638  0.9531859100406823  1.0000
  S   S4        1.0  0.3323563664865315  0.37302062617915194  0.45324912375766563  1.0000
  N   N1        1.0  0.567868117293122  0.026168077536910514  0.17782981692395822  1.0000
  N   N2        1.0  0.9321258256336853  0.47383358122341723  0.6778522715212848  1.0000
  N   N3        1.0  0.43209075844403305  0.9737791348106476  0.8221531170890128  1.0000
  N   N4        1.0  0.06785785751795081  0.5261541239828915  0.322196059234815  1.0000
  N   N5        1.0  0.27850790200334546  0.8189006236697501  0.2937298133313775  1.0000
  N   N6        1.0  0.2216556158200037  0.6811456278837486  0.7937842781061912  1.0000
  N   N7        1.0  0.7216139787307222  0.18122965396391713  0.7063136555156663  1.0000
  N   N8        1.0  0.7784193168271506  0.31885359404415786  0.20629139755214568  1.0000
  N   N9        1.0  0.956422056725654  0.720554445549522  0.9336797690005957  1.0000
  N   N10       1.0  0.5435725309490187  0.7794302168050125  0.4337266621253386  1.0000
  N   N11       1.0  0.04363927843238247  0.27945127473071085  0.066276847374668  1.0000
  N   N12       1.0  0.4564603532945498  0.2205361018484933  0.5663083852216945  1.0000
  N   N13       1.0  0.18517018533278873  0.8010588163976541  0.044445084850826065  1.0000
  N   N14       1.0  0.3147462083343274  0.6989159022217696  0.5444501659816445  1.0000
  N   N15       1.0  0.8147906538839167  0.19889368472211305  0.9555752313881615  1.0000
  N   N16       1.0  0.6851981131131518  0.3010559689668306  0.45555584121965786  1.0000
